data_lcy_v1-6c_Fe_1-YARYOF_2
_audit_creation_date              2021-12-25
_audit_creation_method            'tobacco_3.0'
_symmetry_space_group_name_H-M    'P1'
_symmetry_Int_Tables_number       1
_symmetry_cell_setting            triclinic
loop_
_symmetry_equiv_pos_as_xyz
  x,y,z
_cell_length_a                    9.40378203385224
_cell_length_b                    9.55831883392942
_cell_length_c                    9.497870891229512
_cell_angle_alpha                 87.1205107214737
_cell_angle_beta                  89.64054232841741
_cell_angle_gamma                 90.35952423190662
loop_
_atom_site_label
_atom_site_type_symbol
_atom_site_fract_x
_atom_site_fract_y
_atom_site_fract_z
_atom_site_charge
Fe4       Fe    0.6249593517    0.8749554485    0.1250439773             1.0
Fe11      Fe    0.8728132853    0.1211941446    0.6208869041             1.0
Fe18      Fe    0.3697687734    0.3749560786    0.3764541877          1.0008
Fe25      Fe    0.1249292319    0.6263643171    0.8775819532             1.0
C51        C    0.2090272220    0.5093876361    0.0732821186         -0.1667
N52        N    0.2537867233    0.4634962451    0.1835959938         -0.1667
C49        C    0.2794330224    0.4981439302    0.5768543878         -0.1667
N50        N    0.2368151429    0.5419821100    0.6848791475         -0.1667
C47        C    0.5662412875    0.2837008613    0.4895187757         -0.1667
N48        N    0.6760522306    0.2372228660    0.5332766900         -0.1667
C45        C    0.1762768314    0.2572822949    0.4615162777         -0.1667
N46        N    0.0660208489    0.2098932799    0.5061281318         -0.1667
C43        C    0.0043696743    0.4257843031    0.7877816428         -0.1667
N44        N    0.9620105573    0.3182328813    0.7439172762         -0.1667
C41        C    0.9916946853    0.9297381711    0.7111797790         -0.1667
N42        N    0.0381780746    0.8212104659    0.7583098205         -0.1667
C39        C    0.7811690236    0.0018385693    0.4215665602         -0.1667
N40        N    0.7372266830    0.9583091585    0.3142252615         -0.1667
C37        C    0.7110648259    0.9904725866    0.9285279102         -0.1667
N38        N    0.7567860120    0.0351891371    0.8173606986         -0.1667
C35        C    0.4887084251    0.5699639700    0.2887676373         -0.1667
N36        N    0.5361862618    0.6793618020    0.2428221486         -0.1667
C33        C    0.4602650132    0.1789122026    0.2572709065         -0.1667
N34        N    0.5039603481    0.0720303201    0.2137426037         -0.1667
C31        C    0.9345759486    0.7082698048    0.9912650860         -0.1667
N32        N    0.8251797703    0.7521188094    0.0356041854         -0.1667
C29        C    0.4348453051    0.7929535467    0.0114367273         -0.1667
N30        N    0.3254318271    0.7493050498    0.9669482581         -0.1667
loop_
_geom_bond_atom_site_label_1
_geom_bond_atom_site_label_2
_geom_bond_distance
_geom_bond_site_symmetry_2
_ccdc_geom_bond_type
Fe4         N40 2.266       .   S
Fe4         C37 2.263       .   S
Fe4         N36 2.281       .   S
Fe4         N34 2.393       .   S
Fe4         N32 2.399       .   S
Fe4         C29 2.251       .   S
Fe11        N48 2.302       .   S
Fe11        N46 2.252       .   S
Fe11        N44 2.414       .   S
Fe11        C41 2.283       .   S
Fe11        C39 2.419   1_545   S
Fe11        N38 2.271   1_546   S
Fe18        N52 2.268       .   S
Fe18        C49 2.439       .   S
Fe18        C47 2.298       .   S
Fe18        C45 2.257   1_455   S
Fe18        C35 2.286       .   S
Fe18        C33 2.395   1_545   S
Fe25        C51 2.270   1_556   S
Fe25        N50 2.290       .   S
Fe25        C43 2.416   1_455   S
Fe25        N42 2.288   1_465   S
Fe25        C31 2.250   1_456   S
Fe25        N30 2.398   1_556   S
C51         N52 1.195       .   T
C49         N50 1.195       .   T
C47         N48 1.195       .   T
C45         N46 1.195       .   T
C43         N44 1.195       .   T
C41         N42 1.195       .   T
C39         N40 1.195       .   T
C37         N38 1.195       .   T
C35         N36 1.195       .   T
C33         N34 1.195       .   T
C31         N32 1.195       .   T
C29         N30 1.195       .   T
