data_sxb_v1-6c_Fe_2_3_1-FUDQIF_1
_audit_creation_date              2021-12-12
_audit_creation_method            'tobacco_3.0'
_symmetry_space_group_name_H-M    'P1'
_symmetry_Int_Tables_number       1
_symmetry_cell_setting            triclinic
loop_
_symmetry_equiv_pos_as_xyz
  x,y,z
_cell_length_a                    13.9161359260688
_cell_length_b                    13.463858627772483
_cell_length_c                    15.156942067445074
_cell_angle_alpha                 90.00110315883718
_cell_angle_beta                  89.9690205705865
_cell_angle_gamma                 90.00111342476184
loop_
_atom_site_label
_atom_site_type_symbol
_atom_site_fract_x
_atom_site_fract_y
_atom_site_fract_z
_atom_site_charge
Fe4       Fe    0.0000062413    0.9999894732    0.5000443713             1.0
Fe11      Fe    0.5000058787    0.9999890047    0.5000441010             1.0
Fe18      Fe    0.2500059776    0.4999890837    0.5000448098             1.0
Fe25      Fe    0.7500057032    0.4999913518    0.5000437869             1.0
Fe32      Fe    0.9998805384    0.9999900491    0.9989884059             1.0
Fe39      Fe    0.4998816750    0.9999911703    0.9989872995             1.0
Fe46      Fe    0.2498804254    0.4999891537    0.9989873095             1.0
Fe53      Fe    0.7498806827    0.4999904457    0.9989851513             1.0
H287       H    0.5744378741    0.3818937609    0.9218525367         -0.0333
H288       H    0.5905168046    0.6053787953    0.0770802671         -0.0333
C289       C    0.5457261063    0.4319136114    0.9548857586         -0.0333
C290       C    0.5549644945    0.5603202550    0.0440741550         -0.0333
N291       N    0.6000775188    0.4922866008    0.9994652566         -0.0333
H292       H    0.4092466496    0.3946166459    0.9219013649         -0.0333
H293       H    0.4253255801    0.6181016803    0.0771290953         -0.0333
C294       C    0.4448141323    0.4396857642    0.9549155867         -0.0333
C295       C    0.4540525205    0.5680924078    0.0441039832         -0.0333
N296       N    0.3996867760    0.5077205222    0.9995244893         -0.0333
H277       H    0.0837124905    0.5103222225    0.8741229121         -0.0333
H278       H    0.0812431178    0.4769624460    0.1248067627         -0.0333
C279       C    0.0510547037    0.5057001740    0.9274634596         -0.0333
C280       C    0.0496358889    0.4865328193    0.0714975867         -0.0333
N281       N    0.1000774900    0.4922858236    0.9994663863         -0.0333
H282       H    0.9185213480    0.5230462390    0.8741698693         -0.0333
H283       H    0.9160519753    0.4896864625    0.1248537198         -0.0333
C284       C    0.9501427798    0.5134730181    0.9274921448         -0.0333
C285       C    0.9487239651    0.4943056633    0.0715262718         -0.0333
N286       N    0.8996868467    0.5077211177    0.9995233492         -0.0333
H267       H    0.4177224283    0.1766102794    0.8724985467         -0.0333
H268       H    0.4174608520    0.1766652135    0.1249373409         -0.0333
C269       C    0.4010549043    0.2051584304    0.9261926372         -0.0333
C270       C    0.4009046118    0.2051899937    0.0712350932         -0.0333
N271       N    0.4266903767    0.1610076060    0.9987303890         -0.0333
H272       H    0.3323216817    0.3233146888    0.8724436610         -0.0333
H273       H    0.3320601054    0.3233696229    0.1248824553         -0.0333
C274       C    0.3488853176    0.2947771834    0.9261591087         -0.0333
C275       C    0.3487350250    0.2948087466    0.0712015647         -0.0333
N276       N    0.3230921432    0.3389722991    0.9986638082         -0.0333
H257       H    0.5822351571    0.8232624316    0.8724429686         -0.0333
H258       H    0.5821480423    0.8234238775    0.1248817435         -0.0333
C259       C    0.5988282814    0.7947601784    0.9261582302         -0.0333
C260       C    0.5987782283    0.7948529395    0.0712006752         -0.0333
N261       N    0.5730929733    0.8389733749    0.9986632031         -0.0333
H262       H    0.6676347840    0.6765573250    0.8724969435         -0.0333
H263       H    0.6675476691    0.6767187709    0.1249357185         -0.0333
C264       C    0.6509971841    0.7051409995    0.9261912024         -0.0333
C265       C    0.6509471310    0.7052337607    0.0712336474         -0.0333
N266       N    0.6766898484    0.6610078360    0.9987286792         -0.0333
H247       H    0.8235788241    0.8704592272    0.0618677815         -0.0333
H248       H    0.8413768033    0.1168126159    0.9370843252         -0.0333
C249       C    0.7952327883    0.9253443876    0.0353301081         -0.0333
C250       C    0.8054588815    0.0668903836    0.9636339212         -0.0333
N251       N    0.8500780296    0.9922867262    0.9994677406         -0.0333
H252       H    0.6583876782    0.8831831984    0.0619151942         -0.0333
H253       H    0.6761856575    0.1295365872    0.9371317379         -0.0333
C254       C    0.6943208624    0.9331172040    0.0353590715         -0.0333
C255       C    0.7045469556    0.0746632000    0.9636628846         -0.0333
N256       N    0.6496873823    0.0077219653    0.9995252562         -0.0333
H237       H    0.1746771756    0.1091375312    0.0864255802         -0.0333
H238       H    0.1598978059    0.9036047552    0.9126248501         -0.0333
C239       C    0.2036654162    0.0629369021    0.0494411582         -0.0333
C240       C    0.1951737099    0.9448449950    0.9495813691         -0.0333
N241       N    0.1496873457    0.0077212945    0.9995258263         -0.0333
H242       H    0.3398683968    0.0964146010    0.0863772087         -0.0333
H243       H    0.3250890270    0.8908818250    0.9125764785         -0.0333
C244       C    0.3045773881    0.0551647216    0.0494116090         -0.0333
C245       C    0.2960856819    0.9370728146    0.9495518199         -0.0333
N246       N    0.3500780844    0.9922873183    0.9994671476         -0.0333
H227       H    0.9175519205    0.1767235826    0.1249505789         -0.0333
H228       H    0.9176296136    0.1765515825    0.8725118113         -0.0333
C229       C    0.9009567280    0.2052235503    0.0712349001         -0.0333
C230       C    0.9010013677    0.2051247251    0.9261924594         -0.0333
N231       N    0.9266894282    0.1610073839    0.9987305774         -0.0333
H232       H    0.8321519655    0.3234284832    0.1248944512         -0.0333
H233       H    0.8322296586    0.3232564831    0.8724556837         -0.0333
C234       C    0.8487876248    0.2948426034    0.0712006128         -0.0333
C235       C    0.8488322645    0.2947437782    0.9261581721         -0.0333
N236       N    0.8230921550    0.3389726728    0.9986624899         -0.0333
H217       H    0.1678488058    0.6766892382    0.8724989948         -0.0333
H218       H    0.1673323439    0.6765845454    0.1249375693         -0.0333
C219       C    0.1511272326    0.7052035392    0.9261931381         -0.0333
C220       C    0.1508304918    0.7051433864    0.0712354678         -0.0333
N221       N    0.1766892083    0.6610066872    0.9987306729         -0.0333
H222       H    0.0824489645    0.8233942111    0.8724446203         -0.0333
H223       H    0.0819325026    0.8232895182    0.1248831948         -0.0333
C224       C    0.0989581989    0.7948226364    0.9261599217         -0.0333
C225       C    0.0986614581    0.7947624836    0.0712022515         -0.0333
N226       N    0.0730920731    0.8389720638    0.9986647120         -0.0333
H207       H    0.8288800790    0.6163087519    0.6734600894         -0.0333
H208       H    0.6710757207    0.3835897724    0.6734801014         -0.0333
C209       C    0.7952963317    0.5667990890    0.7030481545         -0.0333
C210       C    0.7046274954    0.4330869452    0.7030596527         -0.0333
N211       N    0.7499802726    0.4999432690    0.6572662976         -0.0333
H212       H    0.8288190973    0.6163079151    0.8255488348         -0.0333
H213       H    0.6710147390    0.3835889357    0.8255688468         -0.0333
C214       C    0.7952590792    0.5667985779    0.7959560893         -0.0333
C215       C    0.7045902429    0.4330864341    0.7959675874         -0.0333
N216       N    0.7499062967    0.4999422540    0.8417626396         -0.0333
H197       H    0.7505040641    0.6421729596    0.3255609934         -0.0333
H198       H    0.7494085466    0.3579921738    0.3255566571         -0.0333
C199       C    0.7502658742    0.5817153073    0.2959762700         -0.0333
C200       C    0.7496364283    0.4184350189    0.2959737785         -0.0333
N201       N    0.7499590840    0.5000751266    0.3417626197         -0.0333
H202       H    0.7504777145    0.6421730810    0.1734722830         -0.0333
H203       H    0.7493821970    0.3579922953    0.1734679467         -0.0333
C204       C    0.7502497777    0.5817153815    0.2030683566         -0.0333
C205       C    0.7496203319    0.4184350931    0.2030658651         -0.0333
N206       N    0.7499271198    0.5000752738    0.1572663201         -0.0333
H187       H    0.2610794237    0.3583069016    0.6734672031         -0.0333
H188       H    0.2388695116    0.6415607786    0.6734761693         -0.0333
C189       C    0.2563425008    0.4185673000    0.7030529183         -0.0333
C190       C    0.2435814661    0.5813150192    0.7030580699         -0.0333
N191       N    0.2499804072    0.4999412889    0.6572678881         -0.0333
H192       H    0.2610182272    0.3583064721    0.8255559485         -0.0333
H193       H    0.2388083151    0.6415603491    0.8255649147         -0.0333
C194       C    0.2563051170    0.4185670376    0.7959608531         -0.0333
C195       C    0.2435440824    0.5813147568    0.7959660047         -0.0333
N196       N    0.2499061707    0.4999407678    0.8417642301         -0.0333
H177       H    0.2478771102    0.6421557758    0.3255645383         -0.0333
H178       H    0.2520354535    0.3580053436    0.3255562933         -0.0333
C179       C    0.2487566069    0.5817046508    0.2959789834         -0.0333
C180       C    0.2511458447    0.4184418025    0.2959742461         -0.0333
N181       N    0.2499592194    0.5000730821    0.3417642102         -0.0333
H182       H    0.2478505584    0.6421562561    0.1734758280         -0.0333
H183       H    0.2520089017    0.3580058238    0.1734675831         -0.0333
C184       C    0.2487403869    0.5817049442    0.2030710701         -0.0333
C185       C    0.2511296247    0.4184420959    0.2030663328         -0.0333
N186       N    0.2499270099    0.5000736647    0.1572679108         -0.0333
H167       H    0.4172143012    0.4967603072    0.3733643258         -0.0333
H168       H    0.4176024904    0.4905244298    0.6257417747         -0.0333
C169       C    0.4494294303    0.4979085875    0.4270467098         -0.0333
C170       C    0.4496524702    0.4943256716    0.5720539190         -0.0333
N171       N    0.3998086002    0.4922866272    0.4995647575         -0.0333
H172       H    0.5824059631    0.5094837568    0.3733163513         -0.0333
H173       H    0.5827941522    0.5032478794    0.6256938002         -0.0333
C174       C    0.5503416714    0.5056810852    0.4270174032         -0.0333
C175       C    0.5505647113    0.5020981693    0.5720246124         -0.0333
N176       N    0.6001998735    0.5077212335    0.4995065605         -0.0333
H157       H    0.0728201901    0.6419434199    0.5362336885         -0.0333
H158       H    0.0923790587    0.3708000616    0.4627943790         -0.0333
C159       C    0.0448486445    0.5817848346    0.5206190963         -0.0333
C160       C    0.0560864827    0.4259953937    0.4784234510         -0.0333
N161       N    0.1001999564    0.5077200223    0.4995070975         -0.0333
H162       H    0.9076283862    0.6292219441    0.5362807762         -0.0333
H163       H    0.9271872547    0.3580785858    0.4628414666         -0.0333
C164       C    0.9439363166    0.5740135427    0.5206478613         -0.0333
C165       C    0.9551741548    0.4182241018    0.4784522159         -0.0333
N166       N    0.8998085108    0.4922878104    0.4995642188         -0.0333
H147       H    0.5307985388    0.1384237176    0.6734684714         -0.0333
H148       H    0.4691530794    0.8614744187    0.6734741825         -0.0333
C149       C    0.5176720536    0.0795045726    0.7030534941         -0.0333
C150       C    0.4822527399    0.9203792423    0.7030567755         -0.0333
N151       N    0.4999806618    0.9999417874    0.6572675288         -0.0333
H152       H    0.5307378693    0.1384241163    0.8255572167         -0.0333
H153       H    0.4690924099    0.8614748174    0.8255629278         -0.0333
C154       C    0.5176349918    0.0795048162    0.7959614288         -0.0333
C155       C    0.4822156781    0.9203794859    0.7959647102         -0.0333
N156       N    0.4999070646    0.9999422711    0.8417638707         -0.0333
H137       H    0.4948028719    0.1420726130    0.3255667422         -0.0333
H138       H    0.5051099924    0.8580895552    0.3255533713         -0.0333
C139       C    0.4969905855    0.0816572546    0.2959800967         -0.0333
C140       C    0.5029126946    0.9184905737    0.2959724143         -0.0333
N141       N    0.4999594738    0.0000735239    0.3417638510         -0.0333
H142       H    0.4947768509    0.1420739093    0.1734780317         -0.0333
H143       H    0.5050839715    0.8580908515    0.1734646607         -0.0333
C144       C    0.4969746898    0.0816580465    0.2030721832         -0.0333
C145       C    0.5028967989    0.9184913656    0.2030645007         -0.0333
N146       N    0.4999279083    0.0000750964    0.1572675512         -0.0333
H127       H    0.4177542360    0.8234085432    0.3741354999         -0.0333
H128       H    0.4176380881    0.8232769222    0.6265742881         -0.0333
C129       C    0.4011176356    0.7948434191    0.4278298405         -0.0333
C130       C    0.4010509011    0.7947677943    0.5728722930         -0.0333
N131       N    0.4267949108    0.8389732318    0.5003672015         -0.0333
H132       H    0.3323534103    0.6767007489    0.3740819064         -0.0333
H133       H    0.3322372624    0.6765691279    0.6265206946         -0.0333
C134       C    0.3489480005    0.7052225984    0.4277971013         -0.0333
C135       C    0.3488812660    0.7051469736    0.5728395539         -0.0333
N136       N    0.3231965814    0.6610044325    0.5003021882         -0.0333
H117       H    0.5821092717    0.1766495808    0.6265332368         -0.0333
H118       H    0.5824814899    0.1766222967    0.3740945017         -0.0333
C119       C    0.5988002610    0.2051809538    0.5728389374         -0.0333
C120       C    0.5990141245    0.2051652773    0.4277965154         -0.0333
N121       N    0.5731966871    0.1610054055    0.5003015452         -0.0333
H122       H    0.6675096431    0.3233576575    0.6265869844         -0.0333
H123       H    0.6678818613    0.3233303734    0.3741482493         -0.0333
C124       C    0.6509696186    0.2948019470    0.5728717708         -0.0333
C125       C    0.6511834820    0.2947862705    0.4278293487         -0.0333
N126       N    0.6767944654    0.3389745473    0.5003667456         -0.0333
H107       H    0.9932197749    0.8580142432    0.6734704588         -0.0333
H108       H    0.0067277292    0.1418543622    0.6734735718         -0.0333
C109       C    0.9960815938    0.9183993941    0.7030549288         -0.0333
C110       C    0.0038427894    0.0814839474    0.7030567174         -0.0333
N111       N    0.9999806304    0.9999417486    0.6572682171         -0.0333
H112       H    0.9931585285    0.8580139848    0.8255592042         -0.0333
H113       H    0.0066664828    0.1418541038    0.8255623172         -0.0333
C114       C    0.9960441796    0.9183992363    0.7959628636         -0.0333
C115       C    0.0038053752    0.0814837896    0.7959646522         -0.0333
N116       N    0.9999063334    0.9999414351    0.8417645591         -0.0333
H97        H    0.9980134924    0.8579889592    0.3255590451         -0.0333
H98        H    0.0018995215    0.1421436709    0.3255624437         -0.0333
C99        C    0.9988350426    0.9184412254    0.2959759673         -0.0333
C100       C    0.0010678183    0.0817065325    0.2959779200         -0.0333
N101       N    0.9999594446    0.0000736664    0.3417645391         -0.0333
H102       H    0.9979868724    0.8579896650    0.1734703349         -0.0333
H103       H    0.0018729015    0.1421443767    0.1734737335         -0.0413
C104       C    0.9988187810    0.9184416565    0.2030680540         -0.0333
C105       C    0.0010515567    0.0817069636    0.2030700068         -0.0333
N106       N    0.9999271523    0.0000745226    0.1572682397         -0.0333
H87        H    0.8423766464    0.8708478087    0.4626085398         -0.0333
H88        H    0.8228250179    0.1418666252    0.5364113861         -0.0333
C89        C    0.8060846049    0.9260305894    0.4783188543         -0.0333
C90        C    0.7948509265    0.0817484730    0.5207233751         -0.0333
N91        N    0.8502001330    0.0077197937    0.4995068403         -0.0333
H92        H    0.6771849273    0.8581251558    0.4626559540         -0.0333
H93        H    0.6576332987    0.1291439723    0.5364588003         -0.0333
C94        C    0.7051723287    0.9182585784    0.4783478187         -0.0333
C95        C    0.6939386504    0.0739764619    0.5207523395         -0.0333
N96        N    0.6498087902    0.9922861538    0.4995643576         -0.0333
H77        H    0.1774164210    0.8546981002    0.5243561896         -0.0333
H78        H    0.1574017747    0.1325709331    0.4747652389         -0.0333
C79        C    0.2052909916    0.9162884939    0.5137967581         -0.0333
C80        C    0.1937912795    0.0759444543    0.4853035413         -0.0333
N81        N    0.1498087600    0.9922863261    0.4995644948         -0.0333
H82        H    0.3426081677    0.8674203727    0.5243085410         -0.0333
H83        H    0.3225935213    0.1452932056    0.4747175903         -0.0333
C84        C    0.3062032846    0.9240602725    0.5137676505         -0.0333
C85        C    0.2947035724    0.0837162329    0.4852744338         -0.0333
N86        N    0.3502001362    0.0077195045    0.4995066930         -0.0333
H67        H    0.9175006764    0.8233632143    0.6265872910         -0.0333
H68        H    0.9178921380    0.8233247001    0.3741485718         -0.0333
C69        C    0.9009719737    0.7948179560    0.5728720196         -0.0333
C70        C    0.9011968938    0.7947958271    0.4278296067         -0.0333
N71        N    0.9267952203    0.8389744269    0.5003670962         -0.0333
H72        H    0.8320993721    0.6766557180    0.6265332048         -0.0333
H73        H    0.8324908337    0.6766172038    0.3740944856         -0.0333
C74        C    0.8488020463    0.7051973173    0.5728389794         -0.0333
C75        C    0.8490269663    0.7051751884    0.4277965665         -0.0333
N76        N    0.8231963103    0.6610059892    0.5003014851         -0.0333
H57        H    0.1678265494    0.3233644031    0.3741358604         -0.0333
H58        H    0.1675661416    0.3233215323    0.6265746552         -0.0333
C59        C    0.1511592623    0.2948181578    0.4278301167         -0.0333
C60        C    0.1510096412    0.2947935258    0.5728725731         -0.0333
N61        N    0.1767950886    0.3389734702    0.5003676123         -0.0333
H62        H    0.0824257425    0.1766565974    0.3740818265         -0.0333
H63        H    0.0821653347    0.1766137267    0.6265206213         -0.0333
C64        C    0.0989896387    0.2051973302    0.4277971085         -0.0333
C65        C    0.0988400175    0.2051726981    0.5728395649         -0.0333
N66        N    0.0731967819    0.1610046573    0.5003020647         -0.0333
loop_
_geom_bond_atom_site_label_1
_geom_bond_atom_site_label_2
_geom_bond_distance
_geom_bond_site_symmetry_2
_ccdc_geom_bond_type
Fe4        N111 2.383       .   S
Fe4        N101 2.399       .   S
Fe4         N91 2.087       .   S
Fe4         N81 2.087       .   S
Fe4         N71 2.395       .   S
Fe4         N66 2.395       .   S
Fe11       N151 2.383       .   S
Fe11       N141 2.399       .   S
Fe11       N131 2.395       .   S
Fe11       N121 2.395       .   S
Fe11        N96 2.087   1_665   S
Fe11        N86 2.087   1_565   S
Fe18       N191 2.383       .   S
Fe18       N181 2.399       .   S
Fe18       N171 2.087       .   S
Fe18       N161 2.087       .   S
Fe18       N136 2.395       .   S
Fe18        N61 2.395       .   S
Fe25       N211 2.383       .   S
Fe25       N201 2.399       .   S
Fe25       N176 2.087       .   S
Fe25       N166 2.087   1_655   S
Fe25       N126 2.395   1_545   S
Fe25        N76 2.395   1_665   S
Fe32       N251 2.087       .   S
Fe32       N241 2.087       .   S
Fe32       N231 2.395       .   S
Fe32       N226 2.395       .   S
Fe32       N116 2.383   1_655   S
Fe32       N106 2.399   1_656   S
Fe39       N271 2.395       .   S
Fe39       N261 2.395       .   S
Fe39       N256 2.087       .   S
Fe39       N246 2.087   1_455   S
Fe39       N156 2.383   1_545   S
Fe39       N146 2.399   1_546   S
Fe46       N296 2.087       .   S
Fe46       N281 2.087       .   S
Fe46       N276 2.395       .   S
Fe46       N221 2.395   1_465   S
Fe46       N196 2.383       .   S
Fe46       N186 2.399   1_556   S
Fe53       N291 2.087       .   S
Fe53       N286 2.087   1_655   S
Fe53       N266 2.395   1_565   S
Fe53       N236 2.395       .   S
Fe53       N216 2.383       .   S
Fe53       N206 2.399   1_556   S
H287       C289 0.929       .   S
H288       C290 0.929       .   S
C289       C294 1.408       .   S
C289       N291 1.300       .   D
C290       C295 1.408       .   D
C290       N291 1.300       .   S
H292       C294 0.929       .   S
H293       C295 0.929       .   S
C294       N296 1.300       .   D
C295       N296 1.300       .   S
H277       C279 0.929       .   S
H278       C280 0.929       .   S
C279       C284 1.408       .   S
C279       N281 1.300       .   D
C280       C285 1.408       .   D
C280       N281 1.300       .   S
H282       C284 0.929       .   S
H283       C285 0.929       .   S
C284       N286 1.300       .   D
C285       N286 1.300       .   S
H267       C269 0.929       .   S
H268       C270 0.929       .   S
C269       C274 1.408       .   S
C269       N271 1.300       .   D
C270       C275 1.408       .   D
C270       N271 1.300       .   S
H272       C274 0.929       .   S
H273       C275 0.929       .   S
C274       N276 1.300       .   D
C275       N276 1.300       .   S
H257       C259 0.929       .   S
H258       C260 0.929       .   S
C259       C264 1.408       .   S
C259       N261 1.300       .   D
C260       C265 1.408       .   D
C260       N261 1.300       .   S
H262       C264 0.929       .   S
H263       C265 0.929       .   S
C264       N266 1.300       .   D
C265       N266 1.300       .   S
H247       C249 0.929       .   S
H248       C250 0.929       .   S
C249       C254 1.408       .   S
C249       N251 1.300       .   D
C250       C255 1.408       .   D
C250       N251 1.300       .   S
H252       C254 0.929       .   S
H253       C255 0.929       .   S
C254       N256 1.300       .   D
C255       N256 1.300       .   S
H237       C239 0.929       .   S
H238       C240 0.929       .   S
C239       C244 1.408       .   S
C239       N241 1.300       .   D
C240       C245 1.408       .   D
C240       N241 1.300       .   S
H242       C244 0.929       .   S
H243       C245 0.929       .   S
C244       N246 1.300       .   D
C245       N246 1.300       .   S
H227       C229 0.929       .   S
H228       C230 0.929       .   S
C229       C234 1.408       .   S
C229       N231 1.300       .   D
C230       C235 1.408       .   D
C230       N231 1.300       .   S
H232       C234 0.929       .   S
H233       C235 0.929       .   S
C234       N236 1.300       .   D
C235       N236 1.300       .   S
H217       C219 0.929       .   S
H218       C220 0.929       .   S
C219       C224 1.408       .   S
C219       N221 1.300       .   D
C220       C225 1.408       .   D
C220       N221 1.300       .   S
H222       C224 0.929       .   S
H223       C225 0.929       .   S
C224       N226 1.300       .   D
C225       N226 1.300       .   S
H207       C209 0.929       .   S
H208       C210 0.929       .   S
C209       C214 1.408       .   S
C209       N211 1.300       .   D
C210       C215 1.408       .   D
C210       N211 1.300       .   S
H212       C214 0.929       .   S
H213       C215 0.929       .   S
C214       N216 1.300       .   D
C215       N216 1.300       .   S
H197       C199 0.929       .   S
H198       C200 0.929       .   S
C199       C204 1.408       .   S
C199       N201 1.300       .   D
C200       C205 1.408       .   D
C200       N201 1.300       .   S
H202       C204 0.929       .   S
H203       C205 0.929       .   S
C204       N206 1.300       .   D
C205       N206 1.300       .   S
H187       C189 0.929       .   S
H188       C190 0.929       .   S
C189       C194 1.408       .   S
C189       N191 1.300       .   D
C190       C195 1.408       .   D
C190       N191 1.300       .   S
H192       C194 0.929       .   S
H193       C195 0.929       .   S
C194       N196 1.300       .   D
C195       N196 1.300       .   S
H177       C179 0.929       .   S
H178       C180 0.929       .   S
C179       C184 1.408       .   S
C179       N181 1.300       .   D
C180       C185 1.408       .   D
C180       N181 1.300       .   S
H182       C184 0.929       .   S
H183       C185 0.929       .   S
C184       N186 1.300       .   D
C185       N186 1.300       .   S
H167       C169 0.929       .   S
H168       C170 0.929       .   S
C169       C174 1.408       .   S
C169       N171 1.300       .   D
C170       C175 1.408       .   D
C170       N171 1.300       .   S
H172       C174 0.929       .   S
H173       C175 0.929       .   S
C174       N176 1.300       .   D
C175       N176 1.300       .   S
H157       C159 0.929       .   S
H158       C160 0.929       .   S
C159       C164 1.408       .   S
C159       N161 1.300       .   D
C160       C165 1.408       .   D
C160       N161 1.300       .   S
H162       C164 0.929       .   S
H163       C165 0.929       .   S
C164       N166 1.300       .   D
C165       N166 1.300       .   S
H147       C149 0.929       .   S
H148       C150 0.929       .   S
C149       C154 1.408       .   S
C149       N151 1.300       .   D
C150       C155 1.408       .   D
C150       N151 1.300       .   S
H152       C154 0.929       .   S
H153       C155 0.929       .   S
C154       N156 1.300       .   D
C155       N156 1.300       .   S
H137       C139 0.929       .   S
H138       C140 0.929       .   S
C139       C144 1.408       .   S
C139       N141 1.300       .   D
C140       C145 1.408       .   D
C140       N141 1.300       .   S
H142       C144 0.929       .   S
H143       C145 0.929       .   S
C144       N146 1.300       .   D
C145       N146 1.300       .   S
H127       C129 0.929       .   S
H128       C130 0.929       .   S
C129       C134 1.408       .   S
C129       N131 1.300       .   D
C130       C135 1.408       .   D
C130       N131 1.300       .   S
H132       C134 0.929       .   S
H133       C135 0.929       .   S
C134       N136 1.300       .   D
C135       N136 1.300       .   S
H117       C119 0.929       .   S
H118       C120 0.929       .   S
C119       C124 1.408       .   S
C119       N121 1.300       .   D
C120       C125 1.408       .   D
C120       N121 1.300       .   S
H122       C124 0.929       .   S
H123       C125 0.929       .   S
C124       N126 1.300       .   D
C125       N126 1.300       .   S
H107       C109 0.929       .   S
H108       C110 0.929       .   S
C109       C114 1.408       .   S
C109       N111 1.300       .   D
C110       C115 1.408       .   D
C110       N111 1.300       .   S
H112       C114 0.929       .   S
H113       C115 0.929       .   S
C114       N116 1.300       .   D
C115       N116 1.300       .   S
H97         C99 0.929       .   S
H98        C100 0.929       .   S
C99        C104 1.408       .   S
C99        N101 1.300       .   D
C100       C105 1.408       .   D
C100       N101 1.300       .   S
H102       C104 0.929       .   S
H103       C105 0.929       .   S
C104       N106 1.300       .   D
C105       N106 1.300       .   S
H87         C89 0.929       .   S
H88         C90 0.929       .   S
C89         C94 1.408       .   S
C89         N91 1.300       .   D
C90         C95 1.408       .   D
C90         N91 1.300       .   S
H92         C94 0.929       .   S
H93         C95 0.929       .   S
C94         N96 1.300       .   D
C95         N96 1.300       .   S
H77         C79 0.929       .   S
H78         C80 0.929       .   S
C79         C84 1.408       .   S
C79         N81 1.300       .   D
C80         C85 1.408       .   D
C80         N81 1.300       .   S
H82         C84 0.929       .   S
H83         C85 0.929       .   S
C84         N86 1.300       .   D
C85         N86 1.300       .   S
H67         C69 0.929       .   S
H68         C70 0.929       .   S
C69         C74 1.408       .   S
C69         N71 1.300       .   D
C70         C75 1.408       .   D
C70         N71 1.300       .   S
H72         C74 0.929       .   S
H73         C75 0.929       .   S
C74         N76 1.300       .   D
C75         N76 1.300       .   S
H57         C59 0.929       .   S
H58         C60 0.929       .   S
C59         C64 1.408       .   S
C59         N61 1.300       .   D
C60         C65 1.408       .   D
C60         N61 1.300       .   S
H62         C64 0.929       .   S
H63         C65 0.929       .   S
C64         N66 1.300       .   D
C65         N66 1.300       .   S
