data_lcy_v1-6c_Cd_1_1-MOCKEV_1
_audit_creation_date              2021-12-25
_audit_creation_method            'tobacco_3.0'
_symmetry_space_group_name_H-M    'P1'
_symmetry_Int_Tables_number       1
_symmetry_cell_setting            triclinic
loop_
_symmetry_equiv_pos_as_xyz
  x,y,z
_cell_length_a                    9.341773786561843
_cell_length_b                    9.326465077712763
_cell_length_c                    9.306446083653611
_cell_angle_alpha                 89.92680326851
_cell_angle_beta                  90.01461801859328
_cell_angle_gamma                 89.94127884351056
loop_
_atom_site_label
_atom_site_type_symbol
_atom_site_fract_x
_atom_site_fract_y
_atom_site_fract_z
_atom_site_charge
Cd5       Cd    0.6249832958    0.8749685022    0.1249719855             1.0
Cd12      Cd    0.8741121433    0.1266229826    0.6280443467             1.0
Cd19      Cd    0.3776269416    0.3754220833    0.3772847322             1.0
Cd26      Cd    0.1265049241    0.6241796576    0.8763625762             1.0
N51        N    0.2517544931    0.4654908063    0.1683176070         -0.1667
N52        N    0.2181956022    0.4985511319    0.0844133235         -0.1667
N49        N    0.2530141951    0.5336551845    0.6693137110         -0.1667
N50        N    0.2865878038    0.5004033896    0.5855934429         -0.1667
N47        N    0.5839104319    0.2853324225    0.5037810327         -0.1667
N48        N    0.6673995028    0.2519937010    0.5374247758         -0.1667
N45        N    0.0841977675    0.2173604125    0.5024073584         -0.1659
N46        N    0.1679365195    0.2502561084    0.4691666558         -0.1667
N43        N    0.9659758565    0.3338531780    0.7532558412         -0.1667
N44        N    0.9998330442    0.4173058103    0.7864198610         -0.1667
N41        N    0.0008346344    0.9175079230    0.7182239879         -0.1667
N42        N    0.0344010296    0.8336738880    0.7511070104         -0.1667
N39        N    0.7830967046    0.0002322748    0.4188651354         -0.1667
N40        N    0.7501254138    0.9668303505    0.3349743943         -0.1667
N37        N    0.7148237185    0.0016068182    0.9180088166         -0.1667
N38        N    0.7481340944    0.0353982944    0.8343413667         -0.1667
N35        N    0.5355548250    0.6665101052    0.2514284837         -0.1667
N36        N    0.5027251057    0.5828011186    0.2851804131         -0.1667
N33        N    0.4676790389    0.1676807600    0.2501948147         -0.1667
N34        N    0.5004934834    0.0839419137    0.2165486051         -0.1667
N31        N    0.9169990763    0.7152242302    0.0014319400         -0.1667
N32        N    0.8332394804    0.7484524876    0.0343738590         -0.1667
N29        N    0.4179741261    0.7835094347    0.9993017657         -0.1667
N30        N    0.3344103720    0.7500112414    0.9662656577         -0.1667
loop_
_geom_bond_atom_site_label_1
_geom_bond_atom_site_label_2
_geom_bond_distance
_geom_bond_site_symmetry_2
_ccdc_geom_bond_type
Cd5         N40 2.434       .   S
Cd5         N37 2.410       .   S
Cd5         N35 2.421       .   S
Cd5         N34 2.424       .   S
Cd5         N32 2.426       .   S
Cd5         N29 2.417       .   S
Cd12        N48 2.408       .   S
Cd12        N45 2.437       .   S
Cd12        N43 2.416       .   S
Cd12        N41 2.429       .   S
Cd12        N39 2.431   1_545   S
Cd12        N38 2.407   1_546   S
Cd19        N51 2.421       .   S
Cd19        N50 2.418       .   S
Cd19        N47 2.408       .   S
Cd19        N46 2.436   1_455   S
Cd19        N36 2.417       .   S
Cd19        N33 2.421   1_545   S
Cd26        N52 2.418   1_556   S
Cd26        N49 2.414       .   S
Cd26        N44 2.415   1_455   S
Cd26        N42 2.430   1_465   S
Cd26        N31 2.430   1_456   S
Cd26        N30 2.420   1_556   S
N51         N52 0.896       .   D
N49         N50 0.896       .   D
N47         N48 0.896       .   D
N45         N46 0.896       .   D
N43         N44 0.896       .   D
N41         N42 0.896       .   D
N39         N40 0.896       .   D
N37         N38 0.896       .   D
N35         N36 0.896       .   D
N33         N34 0.896       .   D
N31         N32 0.896       .   D
N29         N30 0.896       .   D
